!- Darwin Line endings 

Version,
    22.2;                     !- Version Identifier

SimulationControl,
    No,                       !- Do Zone Sizing Calculation
    No,                       !- Do System Sizing Calculation
    No,                       !- Do Plant Sizing Calculation
    No,                       !- Run Simulation for Sizing Periods
    Yes,                      !- Run Simulation for Weather File Run Periods
    No,                       !- Do HVAC Sizing Simulation for Sizing Periods
    1;                        !- Maximum Number of HVAC Sizing Simulation Passes

Building,
    None,                     !- Name
    0,                        !- North Axis
    Suburbs,                  !- Terrain
    0.04,                     !- Loads Convergence Tolerance Value
    0.4,                      !- Temperature Convergence Tolerance Value
    FullInteriorAndExterior,    !- Solar Distribution
    25,                       !- Maximum Number of Warmup Days
    6;                        !- Minimum Number of Warmup Days

Timestep,
    4;                        !- Number of Timesteps per Hour

SITE:LOCATION,
    "PALO-ALTO-AP",           !- Name
    37.461,                   !- Latitude
    -122.115,                 !- Longitude
    -8,                       !- Time Zone
    1;                        !- Elevation

RUNPERIOD,
    Summer,                   !- Name
    7,                        !- Begin Month
    1,                        !- Begin Day of Month
    ,                         !- Begin Year
    7,                        !- End Month
    1,                        !- End Day of Month
    ,                         !- End Year
    ,                         !- Day of Week for Start Day
    Yes,                      !- Use Weather File Holidays and Special Days
    Yes,                      !- Use Weather File Daylight Saving Period
    No,                       !- Apply Weekend Holiday Rule
    Yes,                      !- Use Weather File Rain Indicators
    Yes,                      !- Use Weather File Snow Indicators
    No,                       !- Treat Weather as Actual
    Hour24;                   !- First Hour Interpolation Starting Values

Material,
    M01 100mm brick,          !- Name
    MediumRough,              !- Roughness
    0.1016,                   !- Thickness
    0.89,                     !- Conductivity
    1920,                     !- Density
    790;                      !- Specific Heat

Material,
    I02 50mm insulation board,    !- Name
    MediumRough,              !- Roughness
    0.0508,                   !- Thickness
    0.03,                     !- Conductivity
    43,                       !- Density
    1210;                     !- Specific Heat

Material,
    G01a 19mm gypsum board,    !- Name
    MediumSmooth,             !- Roughness
    0.019,                    !- Thickness
    0.16,                     !- Conductivity
    800,                      !- Density
    1090;                     !- Specific Heat

Material,
    M14a 100mm heavyweight concrete,    !- Name
    MediumRough,              !- Roughness
    0.1016,                   !- Thickness
    1.95,                     !- Conductivity
    2240,                     !- Density
    900;                      !- Specific Heat

Material,
    F16 Acoustic tile,        !- Name
    MediumSmooth,             !- Roughness
    0.0191,                   !- Thickness
    0.06,                     !- Conductivity
    368,                      !- Density
    590;                      !- Specific Heat

Material,
    G05 25mm wood,            !- Name
    MediumSmooth,             !- Roughness
    0.0254,                   !- Thickness
    0.15,                     !- Conductivity
    608,                      !- Density
    1630;                     !- Specific Heat

Material:AirGap,
    F04 Wall air space resistance,    !- Name
    0.15;                     !- Thermal Resistance

Material:AirGap,
    F05 Ceiling air space resistance,    !- Name
    0.18;                     !- Thermal Resistance

WindowMaterial:Glazing,
    CLEAR 6MM,                !- Name
    SpectralAverage,          !- Optical Data Type
    ,                         !- Window Glass Spectral Data Set Name
    0.006,                    !- Thickness
    0.775,                    !- Solar Transmittance at Normal Incidence
    0.071,                    !- Front Side Solar Reflectance at Normal Incidence
    0.071,                    !- Back Side Solar Reflectance at Normal Incidence
    0.881,                    !- Visible Transmittance at Normal Incidence
    0.08,                     !- Front Side Visible Reflectance at Normal Incidence
    0.08,                     !- Back Side Visible Reflectance at Normal Incidence
    0,                        !- Infrared Transmittance at Normal Incidence
    0.84,                     !- Front Side Infrared Hemispherical Emissivity
    0.84,                     !- Back Side Infrared Hemispherical Emissivity
    0.9;                      !- Conductivity

Construction,
    Medium Exterior Wall,     !- Name
    M01 100mm brick,          !- Outside Layer
    I02 50mm insulation board,    !- Layer 2
    F04 Wall air space resistance,    !- Layer 3
    G01a 19mm gypsum board;    !- Layer 4

Construction,
    Medium Roof/Ceiling,      !- Name
    M14a 100mm heavyweight concrete,    !- Outside Layer
    F05 Ceiling air space resistance,    !- Layer 2
    F16 Acoustic tile;        !- Layer 3

Construction,
    Medium Partitions,        !- Name
    G01a 19mm gypsum board,    !- Outside Layer
    F04 Wall air space resistance,    !- Layer 2
    G01a 19mm gypsum board;    !- Layer 3

Construction,
    Medium Floor,             !- Name
    F16 Acoustic tile,        !- Outside Layer
    F05 Ceiling air space resistance,    !- Layer 2
    M14a 100mm heavyweight concrete;    !- Layer 3

Construction,
    Medium Furnishings,       !- Name
    G05 25mm wood;            !- Outside Layer

Construction,
    Medium Window Sgl Clr 6mm,    !- Name
    CLEAR 6MM;                !- Outside Layer

CONSTRUCTION:AIRBOUNDARY,
    AirBoundary Block 09 Storey 0 Wall 0001_2,    !- Name
    None,                     !- Air Exchange Method
    0.5;                      !- Simple Mixing Air Changes per Hour

CONSTRUCTION:AIRBOUNDARY,
    AirBoundary Block 09 Storey 0 Wall 0002_1,    !- Name
    None,                     !- Air Exchange Method
    0.5;                      !- Simple Mixing Air Changes per Hour

CONSTRUCTION:AIRBOUNDARY,
    AirBoundary Block 08 Storey 0 Wall 0002_1,    !- Name
    None,                     !- Air Exchange Method
    0.5;                      !- Simple Mixing Air Changes per Hour

GlobalGeometryRules,
    UpperLeftCorner,          !- Starting Vertex Position
    CounterClockWise,         !- Vertex Entry Direction
    World;                    !- Coordinate System

ZONE,
    Block 00 Storey 0,        !- Name
    0,                        !- Direction of Relative North
    0,                        !- X Origin
    0,                        !- Y Origin
    0,                        !- Z Origin
    1,                        !- Type
    1,                        !- Multiplier
    autocalculate,            !- Ceiling Height
    autocalculate,            !- Volume
    autocalculate,            !- Floor Area
    ,                         !- Zone Inside Convection Algorithm
    ,                         !- Zone Outside Convection Algorithm
    Yes;                      !- Part of Total Floor Area

ZONE,
    Block 01 Storey 0,        !- Name
    0,                        !- Direction of Relative North
    0,                        !- X Origin
    0,                        !- Y Origin
    0,                        !- Z Origin
    1,                        !- Type
    1,                        !- Multiplier
    autocalculate,            !- Ceiling Height
    autocalculate,            !- Volume
    autocalculate,            !- Floor Area
    ,                         !- Zone Inside Convection Algorithm
    ,                         !- Zone Outside Convection Algorithm
    Yes;                      !- Part of Total Floor Area

ZONE,
    Block 02 Storey 0,        !- Name
    0,                        !- Direction of Relative North
    0,                        !- X Origin
    0,                        !- Y Origin
    0,                        !- Z Origin
    1,                        !- Type
    1,                        !- Multiplier
    autocalculate,            !- Ceiling Height
    autocalculate,            !- Volume
    autocalculate,            !- Floor Area
    ,                         !- Zone Inside Convection Algorithm
    ,                         !- Zone Outside Convection Algorithm
    Yes;                      !- Part of Total Floor Area

ZONE,
    Block 03 Storey 0,        !- Name
    0,                        !- Direction of Relative North
    0,                        !- X Origin
    0,                        !- Y Origin
    0,                        !- Z Origin
    1,                        !- Type
    1,                        !- Multiplier
    autocalculate,            !- Ceiling Height
    autocalculate,            !- Volume
    autocalculate,            !- Floor Area
    ,                         !- Zone Inside Convection Algorithm
    ,                         !- Zone Outside Convection Algorithm
    Yes;                      !- Part of Total Floor Area

ZONE,
    Block 04 Storey 0,        !- Name
    0,                        !- Direction of Relative North
    0,                        !- X Origin
    0,                        !- Y Origin
    0,                        !- Z Origin
    1,                        !- Type
    1,                        !- Multiplier
    autocalculate,            !- Ceiling Height
    autocalculate,            !- Volume
    autocalculate,            !- Floor Area
    ,                         !- Zone Inside Convection Algorithm
    ,                         !- Zone Outside Convection Algorithm
    Yes;                      !- Part of Total Floor Area

ZONE,
    Block 05 Storey 0,        !- Name
    0,                        !- Direction of Relative North
    0,                        !- X Origin
    0,                        !- Y Origin
    0,                        !- Z Origin
    1,                        !- Type
    1,                        !- Multiplier
    autocalculate,            !- Ceiling Height
    autocalculate,            !- Volume
    autocalculate,            !- Floor Area
    ,                         !- Zone Inside Convection Algorithm
    ,                         !- Zone Outside Convection Algorithm
    Yes;                      !- Part of Total Floor Area

ZONE,
    Block 06 Storey 0,        !- Name
    0,                        !- Direction of Relative North
    0,                        !- X Origin
    0,                        !- Y Origin
    0,                        !- Z Origin
    1,                        !- Type
    1,                        !- Multiplier
    autocalculate,            !- Ceiling Height
    autocalculate,            !- Volume
    autocalculate,            !- Floor Area
    ,                         !- Zone Inside Convection Algorithm
    ,                         !- Zone Outside Convection Algorithm
    Yes;                      !- Part of Total Floor Area

ZONE,
    Block 07 Storey 0,        !- Name
    0,                        !- Direction of Relative North
    0,                        !- X Origin
    0,                        !- Y Origin
    0,                        !- Z Origin
    1,                        !- Type
    1,                        !- Multiplier
    autocalculate,            !- Ceiling Height
    autocalculate,            !- Volume
    autocalculate,            !- Floor Area
    ,                         !- Zone Inside Convection Algorithm
    ,                         !- Zone Outside Convection Algorithm
    Yes;                      !- Part of Total Floor Area

ZONE,
    Block 08 Storey 0,        !- Name
    0,                        !- Direction of Relative North
    0,                        !- X Origin
    0,                        !- Y Origin
    0,                        !- Z Origin
    1,                        !- Type
    1,                        !- Multiplier
    autocalculate,            !- Ceiling Height
    autocalculate,            !- Volume
    autocalculate,            !- Floor Area
    ,                         !- Zone Inside Convection Algorithm
    ,                         !- Zone Outside Convection Algorithm
    Yes;                      !- Part of Total Floor Area

ZONE,
    Block 09 Storey 0,        !- Name
    0,                        !- Direction of Relative North
    0,                        !- X Origin
    0,                        !- Y Origin
    0,                        !- Z Origin
    1,                        !- Type
    1,                        !- Multiplier
    autocalculate,            !- Ceiling Height
    autocalculate,            !- Volume
    autocalculate,            !- Floor Area
    ,                         !- Zone Inside Convection Algorithm
    ,                         !- Zone Outside Convection Algorithm
    Yes;                      !- Part of Total Floor Area

BUILDINGSURFACE:DETAILED,
    Block 00 Storey 0 Wall 0002,    !- Name
    wall,                     !- Surface Type
    Medium Exterior Wall,     !- Construction Name
    Block 00 Storey 0,        !- Zone Name
    ,                         !- Space Name
    outdoors,                 !- Outside Boundary Condition
    ,                         !- Outside Boundary Condition Object
    SunExposed,               !- Sun Exposure
    WindExposed,              !- Wind Exposure
    autocalculate,            !- View Factor to Ground
    autocalculate,            !- Number of Vertices
    3.56,                     !- Vertex 1 Xcoordinate
    4.91,                     !- Vertex 1 Ycoordinate
    3.05,                     !- Vertex 1 Zcoordinate
    3.56,                     !- Vertex 2 Xcoordinate
    4.91,                     !- Vertex 2 Ycoordinate
    0,                        !- Vertex 2 Zcoordinate
    0,                        !- Vertex 3 Xcoordinate
    4.91,                     !- Vertex 3 Ycoordinate
    0,                        !- Vertex 3 Zcoordinate
    0,                        !- Vertex 4 Xcoordinate
    4.91,                     !- Vertex 4 Ycoordinate
    3.05;                     !- Vertex 4 Zcoordinate

BUILDINGSURFACE:DETAILED,
    Block 00 Storey 0 Wall 0003,    !- Name
    wall,                     !- Surface Type
    Medium Exterior Wall,     !- Construction Name
    Block 00 Storey 0,        !- Zone Name
    ,                         !- Space Name
    outdoors,                 !- Outside Boundary Condition
    ,                         !- Outside Boundary Condition Object
    SunExposed,               !- Sun Exposure
    WindExposed,              !- Wind Exposure
    autocalculate,            !- View Factor to Ground
    autocalculate,            !- Number of Vertices
    0,                        !- Vertex 1 Xcoordinate
    4.91,                     !- Vertex 1 Ycoordinate
    3.05,                     !- Vertex 1 Zcoordinate
    0,                        !- Vertex 2 Xcoordinate
    4.91,                     !- Vertex 2 Ycoordinate
    0,                        !- Vertex 2 Zcoordinate
    0,                        !- Vertex 3 Xcoordinate
    2.8600000000000003,       !- Vertex 3 Ycoordinate
    0,                        !- Vertex 3 Zcoordinate
    0,                        !- Vertex 4 Xcoordinate
    2.8600000000000003,       !- Vertex 4 Ycoordinate
    3.05;                     !- Vertex 4 Zcoordinate

BUILDINGSURFACE:DETAILED,
    Block 00 Storey 0 Floor 0001,    !- Name
    floor,                    !- Surface Type
    Medium Floor,             !- Construction Name
    Block 00 Storey 0,        !- Zone Name
    ,                         !- Space Name
    ground,                   !- Outside Boundary Condition
    ,                         !- Outside Boundary Condition Object
    NoSun,                    !- Sun Exposure
    NoWind,                   !- Wind Exposure
    autocalculate,            !- View Factor to Ground
    autocalculate,            !- Number of Vertices
    3.56,                     !- Vertex 1 Xcoordinate
    4.91,                     !- Vertex 1 Ycoordinate
    0,                        !- Vertex 1 Zcoordinate
    3.56,                     !- Vertex 2 Xcoordinate
    2.8600000000000003,       !- Vertex 2 Ycoordinate
    0,                        !- Vertex 2 Zcoordinate
    0,                        !- Vertex 3 Xcoordinate
    2.8600000000000003,       !- Vertex 3 Ycoordinate
    0,                        !- Vertex 3 Zcoordinate
    0,                        !- Vertex 4 Xcoordinate
    4.91,                     !- Vertex 4 Ycoordinate
    0;                        !- Vertex 4 Zcoordinate

BUILDINGSURFACE:DETAILED,
    Block 00 Storey 0 Roof 0001,    !- Name
    roof,                     !- Surface Type
    Medium Roof/Ceiling,      !- Construction Name
    Block 00 Storey 0,        !- Zone Name
    ,                         !- Space Name
    outdoors,                 !- Outside Boundary Condition
    ,                         !- Outside Boundary Condition Object
    SunExposed,               !- Sun Exposure
    WindExposed,              !- Wind Exposure
    autocalculate,            !- View Factor to Ground
    autocalculate,            !- Number of Vertices
    3.56,                     !- Vertex 1 Xcoordinate
    2.8600000000000003,       !- Vertex 1 Ycoordinate
    3.05,                     !- Vertex 1 Zcoordinate
    3.56,                     !- Vertex 2 Xcoordinate
    4.91,                     !- Vertex 2 Ycoordinate
    3.05,                     !- Vertex 2 Zcoordinate
    0,                        !- Vertex 3 Xcoordinate
    4.91,                     !- Vertex 3 Ycoordinate
    3.05,                     !- Vertex 3 Zcoordinate
    0,                        !- Vertex 4 Xcoordinate
    2.8600000000000003,       !- Vertex 4 Ycoordinate
    3.05;                     !- Vertex 4 Zcoordinate

BUILDINGSURFACE:DETAILED,
    Block 01 Storey 0 Wall 0002,    !- Name
    wall,                     !- Surface Type
    Medium Exterior Wall,     !- Construction Name
    Block 01 Storey 0,        !- Zone Name
    ,                         !- Space Name
    outdoors,                 !- Outside Boundary Condition
    ,                         !- Outside Boundary Condition Object
    SunExposed,               !- Sun Exposure
    WindExposed,              !- Wind Exposure
    autocalculate,            !- View Factor to Ground
    autocalculate,            !- Number of Vertices
    6.07,                     !- Vertex 1 Xcoordinate
    4.91,                     !- Vertex 1 Ycoordinate
    3.05,                     !- Vertex 1 Zcoordinate
    6.07,                     !- Vertex 2 Xcoordinate
    4.91,                     !- Vertex 2 Ycoordinate
    0,                        !- Vertex 2 Zcoordinate
    3.56,                     !- Vertex 3 Xcoordinate
    4.91,                     !- Vertex 3 Ycoordinate
    0,                        !- Vertex 3 Zcoordinate
    3.56,                     !- Vertex 4 Xcoordinate
    4.91,                     !- Vertex 4 Ycoordinate
    3.05;                     !- Vertex 4 Zcoordinate

BUILDINGSURFACE:DETAILED,
    Block 01 Storey 0 Floor 0001,    !- Name
    floor,                    !- Surface Type
    Medium Floor,             !- Construction Name
    Block 01 Storey 0,        !- Zone Name
    ,                         !- Space Name
    ground,                   !- Outside Boundary Condition
    ,                         !- Outside Boundary Condition Object
    NoSun,                    !- Sun Exposure
    NoWind,                   !- Wind Exposure
    autocalculate,            !- View Factor to Ground
    autocalculate,            !- Number of Vertices
    6.07,                     !- Vertex 1 Xcoordinate
    4.91,                     !- Vertex 1 Ycoordinate
    0,                        !- Vertex 1 Zcoordinate
    6.07,                     !- Vertex 2 Xcoordinate
    2.8600000000000003,       !- Vertex 2 Ycoordinate
    0,                        !- Vertex 2 Zcoordinate
    3.56,                     !- Vertex 3 Xcoordinate
    2.8600000000000003,       !- Vertex 3 Ycoordinate
    0,                        !- Vertex 3 Zcoordinate
    3.56,                     !- Vertex 4 Xcoordinate
    4.91,                     !- Vertex 4 Ycoordinate
    0;                        !- Vertex 4 Zcoordinate

BUILDINGSURFACE:DETAILED,
    Block 01 Storey 0 Roof 0001,    !- Name
    roof,                     !- Surface Type
    Medium Roof/Ceiling,      !- Construction Name
    Block 01 Storey 0,        !- Zone Name
    ,                         !- Space Name
    outdoors,                 !- Outside Boundary Condition
    ,                         !- Outside Boundary Condition Object
    SunExposed,               !- Sun Exposure
    WindExposed,              !- Wind Exposure
    autocalculate,            !- View Factor to Ground
    autocalculate,            !- Number of Vertices
    6.07,                     !- Vertex 1 Xcoordinate
    2.8600000000000003,       !- Vertex 1 Ycoordinate
    3.05,                     !- Vertex 1 Zcoordinate
    6.07,                     !- Vertex 2 Xcoordinate
    4.91,                     !- Vertex 2 Ycoordinate
    3.05,                     !- Vertex 2 Zcoordinate
    3.56,                     !- Vertex 3 Xcoordinate
    4.91,                     !- Vertex 3 Ycoordinate
    3.05,                     !- Vertex 3 Zcoordinate
    3.56,                     !- Vertex 4 Xcoordinate
    2.8600000000000003,       !- Vertex 4 Ycoordinate
    3.05;                     !- Vertex 4 Zcoordinate

BUILDINGSURFACE:DETAILED,
    Block 02 Storey 0 Wall 0001,    !- Name
    wall,                     !- Surface Type
    Medium Exterior Wall,     !- Construction Name
    Block 02 Storey 0,        !- Zone Name
    ,                         !- Space Name
    outdoors,                 !- Outside Boundary Condition
    ,                         !- Outside Boundary Condition Object
    SunExposed,               !- Sun Exposure
    WindExposed,              !- Wind Exposure
    autocalculate,            !- View Factor to Ground
    autocalculate,            !- Number of Vertices
    8.31,                     !- Vertex 1 Xcoordinate
    2.8600000000000003,       !- Vertex 1 Ycoordinate
    3.05,                     !- Vertex 1 Zcoordinate
    8.31,                     !- Vertex 2 Xcoordinate
    2.8600000000000003,       !- Vertex 2 Ycoordinate
    0,                        !- Vertex 2 Zcoordinate
    8.31,                     !- Vertex 3 Xcoordinate
    4.91,                     !- Vertex 3 Ycoordinate
    0,                        !- Vertex 3 Zcoordinate
    8.31,                     !- Vertex 4 Xcoordinate
    4.91,                     !- Vertex 4 Ycoordinate
    3.05;                     !- Vertex 4 Zcoordinate

BUILDINGSURFACE:DETAILED,
    Block 02 Storey 0 Wall 0002,    !- Name
    wall,                     !- Surface Type
    Medium Exterior Wall,     !- Construction Name
    Block 02 Storey 0,        !- Zone Name
    ,                         !- Space Name
    outdoors,                 !- Outside Boundary Condition
    ,                         !- Outside Boundary Condition Object
    SunExposed,               !- Sun Exposure
    WindExposed,              !- Wind Exposure
    autocalculate,            !- View Factor to Ground
    autocalculate,            !- Number of Vertices
    8.31,                     !- Vertex 1 Xcoordinate
    4.91,                     !- Vertex 1 Ycoordinate
    3.05,                     !- Vertex 1 Zcoordinate
    8.31,                     !- Vertex 2 Xcoordinate
    4.91,                     !- Vertex 2 Ycoordinate
    0,                        !- Vertex 2 Zcoordinate
    6.07,                     !- Vertex 3 Xcoordinate
    4.91,                     !- Vertex 3 Ycoordinate
    0,                        !- Vertex 3 Zcoordinate
    6.07,                     !- Vertex 4 Xcoordinate
    4.91,                     !- Vertex 4 Ycoordinate
    3.05;                     !- Vertex 4 Zcoordinate

BUILDINGSURFACE:DETAILED,
    Block 02 Storey 0 Floor 0001,    !- Name
    floor,                    !- Surface Type
    Medium Floor,             !- Construction Name
    Block 02 Storey 0,        !- Zone Name
    ,                         !- Space Name
    ground,                   !- Outside Boundary Condition
    ,                         !- Outside Boundary Condition Object
    NoSun,                    !- Sun Exposure
    NoWind,                   !- Wind Exposure
    autocalculate,            !- View Factor to Ground
    autocalculate,            !- Number of Vertices
    8.31,                     !- Vertex 1 Xcoordinate
    4.91,                     !- Vertex 1 Ycoordinate
    0,                        !- Vertex 1 Zcoordinate
    8.31,                     !- Vertex 2 Xcoordinate
    2.8600000000000003,       !- Vertex 2 Ycoordinate
    0,                        !- Vertex 2 Zcoordinate
    6.07,                     !- Vertex 3 Xcoordinate
    2.8600000000000003,       !- Vertex 3 Ycoordinate
    0,                        !- Vertex 3 Zcoordinate
    6.07,                     !- Vertex 4 Xcoordinate
    4.91,                     !- Vertex 4 Ycoordinate
    0;                        !- Vertex 4 Zcoordinate

BUILDINGSURFACE:DETAILED,
    Block 02 Storey 0 Roof 0001,    !- Name
    roof,                     !- Surface Type
    Medium Roof/Ceiling,      !- Construction Name
    Block 02 Storey 0,        !- Zone Name
    ,                         !- Space Name
    outdoors,                 !- Outside Boundary Condition
    ,                         !- Outside Boundary Condition Object
    SunExposed,               !- Sun Exposure
    WindExposed,              !- Wind Exposure
    autocalculate,            !- View Factor to Ground
    autocalculate,            !- Number of Vertices
    8.31,                     !- Vertex 1 Xcoordinate
    2.8600000000000003,       !- Vertex 1 Ycoordinate
    3.05,                     !- Vertex 1 Zcoordinate
    8.31,                     !- Vertex 2 Xcoordinate
    4.91,                     !- Vertex 2 Ycoordinate
    3.05,                     !- Vertex 2 Zcoordinate
    6.07,                     !- Vertex 3 Xcoordinate
    4.91,                     !- Vertex 3 Ycoordinate
    3.05,                     !- Vertex 3 Zcoordinate
    6.07,                     !- Vertex 4 Xcoordinate
    2.8600000000000003,       !- Vertex 4 Ycoordinate
    3.05;                     !- Vertex 4 Zcoordinate

BUILDINGSURFACE:DETAILED,
    Block 03 Storey 0 Wall 0001,    !- Name
    wall,                     !- Surface Type
    Medium Exterior Wall,     !- Construction Name
    Block 03 Storey 0,        !- Zone Name
    ,                         !- Space Name
    outdoors,                 !- Outside Boundary Condition
    ,                         !- Outside Boundary Condition Object
    SunExposed,               !- Sun Exposure
    WindExposed,              !- Wind Exposure
    autocalculate,            !- View Factor to Ground
    autocalculate,            !- Number of Vertices
    8.31,                     !- Vertex 1 Xcoordinate
    0,                        !- Vertex 1 Ycoordinate
    3.05,                     !- Vertex 1 Zcoordinate
    8.31,                     !- Vertex 2 Xcoordinate
    0,                        !- Vertex 2 Ycoordinate
    0,                        !- Vertex 2 Zcoordinate
    8.31,                     !- Vertex 3 Xcoordinate
    2.1,                      !- Vertex 3 Ycoordinate
    0,                        !- Vertex 3 Zcoordinate
    8.31,                     !- Vertex 4 Xcoordinate
    2.1,                      !- Vertex 4 Ycoordinate
    3.05;                     !- Vertex 4 Zcoordinate

BUILDINGSURFACE:DETAILED,
    Block 03 Storey 0 Wall 0004,    !- Name
    wall,                     !- Surface Type
    Medium Exterior Wall,     !- Construction Name
    Block 03 Storey 0,        !- Zone Name
    ,                         !- Space Name
    outdoors,                 !- Outside Boundary Condition
    ,                         !- Outside Boundary Condition Object
    SunExposed,               !- Sun Exposure
    WindExposed,              !- Wind Exposure
    autocalculate,            !- View Factor to Ground
    autocalculate,            !- Number of Vertices
    5.57,                     !- Vertex 1 Xcoordinate
    0,                        !- Vertex 1 Ycoordinate
    3.05,                     !- Vertex 1 Zcoordinate
    5.57,                     !- Vertex 2 Xcoordinate
    0,                        !- Vertex 2 Ycoordinate
    0,                        !- Vertex 2 Zcoordinate
    8.31,                     !- Vertex 3 Xcoordinate
    0,                        !- Vertex 3 Ycoordinate
    0,                        !- Vertex 3 Zcoordinate
    8.31,                     !- Vertex 4 Xcoordinate
    0,                        !- Vertex 4 Ycoordinate
    3.05;                     !- Vertex 4 Zcoordinate

BUILDINGSURFACE:DETAILED,
    Block 03 Storey 0 Floor 0001,    !- Name
    floor,                    !- Surface Type
    Medium Floor,             !- Construction Name
    Block 03 Storey 0,        !- Zone Name
    ,                         !- Space Name
    ground,                   !- Outside Boundary Condition
    ,                         !- Outside Boundary Condition Object
    NoSun,                    !- Sun Exposure
    NoWind,                   !- Wind Exposure
    autocalculate,            !- View Factor to Ground
    autocalculate,            !- Number of Vertices
    8.31,                     !- Vertex 1 Xcoordinate
    2.1,                      !- Vertex 1 Ycoordinate
    0,                        !- Vertex 1 Zcoordinate